#======================================================================

# CRYSTAL DATA

#----------------------------------------------------------------------

data_VESTA_phase_1


_chemical_name_common                  'Fe1 Mn2 Na2 O12 V3'
_cell_length_a                         12.0067(19)
_cell_length_b                         12.9563(18)
_cell_length_c                         6.8446(11)
_cell_angle_alpha                      90
_cell_angle_beta                       111.793(3)
_cell_angle_gamma                      90
_space_group_name_H-M_alt              'C 2/c'
_space_group_IT_number                 15

loop_
_space_group_symop_operation_xyz
   'x, y, z'
   '-x, -y, -z'
   '-x, y, -z+1/2'
   'x, -y, z+1/2'
   'x+1/2, y+1/2, z'
   '-x+1/2, -y+1/2, -z'
   '-x+1/2, y+1/2, -z+1/2'
   'x+1/2, -y+1/2, z+1/2'

loop_
   _atom_site_label
   _atom_site_occupancy
   _atom_site_fract_x
   _atom_site_fract_y
   _atom_site_fract_z
   _atom_site_adp_type
   _atom_site_U_iso_or_equiv
   _atom_site_type_symbol
   Na1        1.0     0.500000      0.000000      0.000000     Uiso  0.015799 Na
   Na2        1.0     0.500000      0.4938(2)     0.250000     Uiso  0.049885 Na
   Mn1        1.0     0.000000      0.26739(6)    0.250000     Uiso  0.013371 Mn
   Mn2        0.5000  0.21167(4)    0.15837(4)    0.12426(7)   Uiso  0.012365 Mn
   Fe2        0.5000  0.21167(4)    0.15837(4)    0.12426(7)   Uiso  0.012365 Fe
   V1         1.0     0.000000      0.29125(6)    0.750000     Uiso  0.012651 V
   V2         1.0     0.73062(5)    0.38889(4)    0.12144(8)   Uiso  0.011862 V
   O1         1.0     0.6616(2)     0.50647(18)   0.1010(4)    Uiso  0.020811 O
   O2         1.0     0.1614(2)     0.17165(18)   0.3810(4)    Uiso  0.016946 O
   O3         1.0     0.7172(2)     0.31800(18)   0.3258(4)    Uiso  0.018636 O
   O4         1.0     0.8786(2)     0.4026(2)     0.1754(4)    Uiso  0.022247 O
   O5         1.0     0.0397(2)     0.2195(2)     0.9801(4)    Uiso  0.015695 O
   O6         1.0     0.1104(2)     0.3746(2)     0.7564(4)    Uiso  0.024862 O

loop_
   _atom_site_aniso_label
   _atom_site_aniso_U_11
   _atom_site_aniso_U_22
   _atom_site_aniso_U_33
   _atom_site_aniso_U_12
   _atom_site_aniso_U_13
   _atom_site_aniso_U_23
   Na1	 0.02690  0.00610  0.00670 -0.00290 -0.00270 -0.00150
   Na2	 0.02730  0.08300  0.03440  0.00000  0.00570  0.00000
   Mn1	 0.01240  0.01590  0.01360  0.00000  0.00690  0.00000
   Mn2	 0.01380  0.01440  0.01020 -0.00092  0.00597  0.00032
   Fe2	 0.01380  0.01440  0.01020 -0.00092  0.00597  0.00032
   V1	 0.01610  0.01200  0.00880  0.00000  0.00340  0.00000
   V2	 0.01170  0.01470  0.00950 -0.00010  0.00430 -0.00120
   O1	 0.01900  0.02310  0.02100  0.00180  0.00820 -0.00400
   O2	 0.02070  0.01790  0.01260  0.00510  0.00660  0.00100
   O3	 0.02140  0.02200  0.01370 -0.00040  0.00790 -0.00050
   O4	 0.01400  0.01890  0.03430 -0.00060  0.00950 -0.00330
   O5	 0.01290  0.02300  0.01180  0.00020  0.00530  0.00300
   O6	 0.02620  0.01930  0.02540 -0.00550  0.00530  0.00370
